wipe
puts "System"
model basic -ndm 3 -ndf 6
puts "restraint"
node 1 0.000E+000 0.000E+000 5.700E+004
node 2 0.000E+000 0.000E+000 6.000E+004
node 3 0.000E+000 6.000E+003 5.700E+004
node 4 0.000E+000 6.000E+003 6.000E+004
node 5 0.000E+000 1.200E+004 5.700E+004
node 6 0.000E+000 1.200E+004 6.000E+004
node 7 0.000E+000 1.800E+004 5.700E+004
node 8 0.000E+000 1.800E+004 6.000E+004
node 9 6.000E+003 0.000E+000 5.700E+004
node 10 6.000E+003 0.000E+000 6.000E+004
node 11 6.000E+003 6.000E+003 5.700E+004
node 12 6.000E+003 6.000E+003 6.000E+004
node 13 6.000E+003 1.200E+004 5.700E+004
node 14 6.000E+003 1.200E+004 6.000E+004
node 15 6.000E+003 1.800E+004 5.700E+004
node 16 6.000E+003 1.800E+004 6.000E+004
node 17 1.200E+004 0.000E+000 5.700E+004
node 18 1.200E+004 0.000E+000 6.000E+004
node 19 1.200E+004 6.000E+003 5.700E+004
node 20 1.200E+004 6.000E+003 6.000E+004
# ... 337 like lines cut
puts "rigidDiaphragm"
rigidDiaphragm 3 337 2
rigidDiaphragm 3 337 4
rigidDiaphragm 3 337 6
rigidDiaphragm 3 337 8
rigidDiaphragm 3 337 10
rigidDiaphragm 3 337 12
rigidDiaphragm 3 337 14
rigidDiaphragm 3 337 16
rigidDiaphragm 3 337 18
rigidDiaphragm 3 337 20
rigidDiaphragm 3 337 22
rigidDiaphragm 3 337 24
rigidDiaphragm 3 337 26
rigidDiaphragm 3 337 28
rigidDiaphragm 3 337 30
rigidDiaphragm 3 337 32
rigidDiaphragm 3 338 1
rigidDiaphragm 3 338 3
rigidDiaphragm 3 338 5
rigidDiaphragm 3 338 7
# ... 316 like lines cut
puts "mass"
mass 337 2.570E+002 2.570E+002 0.000E+000 0.000E+000 0.000E+000 0.000E+000
mass 338 2.714E+002 2.714E+002 0.000E+000 0.000E+000 0.000E+000 0.000E+000
mass 339 2.714E+002 2.714E+002 0.000E+000 0.000E+000 0.000E+000 0.000E+000
mass 340 2.714E+002 2.714E+002 0.000E+000 0.000E+000 0.000E+000 0.000E+000
mass 341 2.714E+002 2.714E+002 0.000E+000 0.000E+000 0.000E+000 0.000E+000
mass 342 2.714E+002 2.714E+002 0.000E+000 0.000E+000 0.000E+000 0.000E+000
mass 343 2.714E+002 2.714E+002 0.000E+000 0.000E+000 0.000E+000 0.000E+000
mass 344 2.714E+002 2.714E+002 0.000E+000 0.000E+000 0.000E+000 0.000E+000
mass 345 2.714E+002 2.714E+002 0.000E+000 0.000E+000 0.000E+000 0.000E+000
mass 346 2.714E+002 2.714E+002 0.000E+000 0.000E+000 0.000E+000 0.000E+000
mass 347 2.714E+002 2.714E+002 0.000E+000 0.000E+000 0.000E+000 0.000E+000
mass 348 2.714E+002 2.714E+002 0.000E+000 0.000E+000 0.000E+000 0.000E+000
mass 349 2.714E+002 2.714E+002 0.000E+000 0.000E+000 0.000E+000 0.000E+000
mass 350 2.714E+002 2.714E+002 0.000E+000 0.000E+000 0.000E+000 0.000E+000
mass 351 2.714E+002 2.714E+002 0.000E+000 0.000E+000 0.000E+000 0.000E+000
mass 352 2.714E+002 2.714E+002 0.000E+000 0.000E+000 0.000E+000 0.000E+000
mass 353 2.714E+002 2.714E+002 0.000E+000 0.000E+000 0.000E+000 0.000E+000
mass 354 2.714E+002 2.714E+002 0.000E+000 0.000E+000 0.000E+000 0.000E+000
mass 355 2.714E+002 2.714E+002 0.000E+000 0.000E+000 0.000E+000 0.000E+000
mass 356 2.714E+002 2.714E+002 0.000E+000 0.000E+000 0.000E+000 0.000E+000
mass 357 1.442E+001 1.442E+001 0.000E+000 0.000E+000 0.000E+000 0.000E+000
puts "node"
fix 337 0 0 1 1 1 0
fix 338 0 0 1 1 1 0
fix 339 0 0 1 1 1 0
fix 340 0 0 1 1 1 0
fix 341 0 0 1 1 1 0
fix 342 0 0 1 1 1 0
fix 343 0 0 1 1 1 0
fix 344 0 0 1 1 1 0
fix 345 0 0 1 1 1 0
fix 346 0 0 1 1 1 0
fix 347 0 0 1 1 1 0
fix 348 0 0 1 1 1 0
fix 349 0 0 1 1 1 0
fix 350 0 0 1 1 1 0
fix 351 0 0 1 1 1 0
fix 352 0 0 1 1 1 0
fix 353 0 0 1 1 1 0
fix 354 0 0 1 1 1 0
fix 355 0 0 1 1 1 0
fix 356 0 0 1 1 1 0
# ... 17 like lines cut
puts "Equal DOF"
puts "material"
uniaxialMaterial Elastic 1 1.999E+005
uniaxialMaterial Elastic 2 2.482E+004
uniaxialMaterial Elastic 3 1.999E+005

##WALL1 

puts "transformation"
geomTransf Linear 1 1.000 0.000 0.000 
geomTransf Linear 2 1.000 0.000 0.000 
geomTransf Linear 3 1.000 0.000 0.000 
geomTransf Linear 4 1.000 0.000 0.000 
geomTransf Linear 5 1.000 0.000 0.000 
geomTransf Linear 6 1.000 0.000 0.000 
geomTransf Linear 7 1.000 0.000 0.000 
geomTransf Linear 8 1.000 0.000 0.000 
geomTransf Linear 9 1.000 0.000 0.000 
geomTransf Linear 10 1.000 0.000 0.000 
geomTransf Linear 11 1.000 0.000 0.000 
geomTransf Linear 12 1.000 0.000 0.000 
geomTransf Linear 13 1.000 0.000 0.000 
geomTransf Linear 14 1.000 0.000 0.000 
geomTransf Linear 15 1.000 0.000 0.000 
geomTransf Linear 16 1.000 0.000 0.000 
geomTransf Linear 17 0.000 0.000 1.000 
geomTransf Linear 18 0.000 0.000 1.000 
geomTransf Linear 19 0.000 0.000 1.000 
geomTransf Linear 20 0.000 0.000 1.000 
# ... 780 like lines cut
puts "element"
element elasticBeamColumn 1 1 2 2.500E+005 2.482E+004 1.034E+004 8.802E+009 5.208E+009 5.208E+009 1
element elasticBeamColumn 2 3 4 2.500E+005 2.482E+004 1.034E+004 8.802E+009 5.208E+009 5.208E+009 2
element elasticBeamColumn 3 5 6 2.500E+005 2.482E+004 1.034E+004 8.802E+009 5.208E+009 5.208E+009 3
element elasticBeamColumn 4 7 8 2.500E+005 2.482E+004 1.034E+004 8.802E+009 5.208E+009 5.208E+009 4
element elasticBeamColumn 5 9 10 2.500E+005 2.482E+004 1.034E+004 8.802E+009 5.208E+009 5.208E+009 5
element elasticBeamColumn 6 11 12 2.500E+005 2.482E+004 1.034E+004 8.802E+009 5.208E+009 5.208E+009 6
element elasticBeamColumn 7 13 14 2.500E+005 2.482E+004 1.034E+004 8.802E+009 5.208E+009 5.208E+009 7
element elasticBeamColumn 8 15 16 2.500E+005 2.482E+004 1.034E+004 8.802E+009 5.208E+009 5.208E+009 8
element elasticBeamColumn 9 17 18 2.500E+005 2.482E+004 1.034E+004 8.802E+009 5.208E+009 5.208E+009 9
element elasticBeamColumn 10 19 20 2.500E+005 2.482E+004 1.034E+004 8.802E+009 5.208E+009 5.208E+009 10
element elasticBeamColumn 11 21 22 2.500E+005 2.482E+004 1.034E+004 8.802E+009 5.208E+009 5.208E+009 11
element elasticBeamColumn 12 23 24 2.500E+005 2.482E+004 1.034E+004 8.802E+009 5.208E+009 5.208E+009 12
element elasticBeamColumn 13 25 26 2.500E+005 2.482E+004 1.034E+004 8.802E+009 5.208E+009 5.208E+009 13
element elasticBeamColumn 14 27 28 2.500E+005 2.482E+004 1.034E+004 8.802E+009 5.208E+009 5.208E+009 14
element elasticBeamColumn 15 29 30 2.500E+005 2.482E+004 1.034E+004 8.802E+009 5.208E+009 5.208E+009 15
element elasticBeamColumn 16 31 32 2.500E+005 2.482E+004 1.034E+004 8.802E+009 5.208E+009 5.208E+009 16
element elasticBeamColumn 17 2 4 2.100E+005 2.482E+004 1.034E+004 5.454E+009 6.300E+009 2.144E+009 17
element elasticBeamColumn 18 4 6 2.100E+005 2.482E+004 1.034E+004 5.454E+009 6.300E+009 2.144E+009 18
element elasticBeamColumn 19 6 8 2.100E+005 2.482E+004 1.034E+004 5.454E+009 6.300E+009 2.144E+009 19
element elasticBeamColumn 20 10 12 2.100E+005 2.482E+004 1.034E+004 5.454E+009 6.300E+009 2.144E+009 20
# ... 780 like lines cut
puts "shell element"
puts "SOLID element"
puts "recorder"
recorder Node -file node0x.out -time -nodeRange 1 357 -dof 1 disp
recorder Node -file node0y.out -time -nodeRange 1 357 -dof 2 disp
recorder Node -file node0z.out -time -nodeRange 1 357 -dof 3 disp

##recorder Node -file node0.out -time -nodeRange 1 100 -dof 1 2 3 disp
##recorder Node -file node1.out -time -nodeRange 101 200 -dof 1 2 3 disp
##recorder Node -file node2.out -time -nodeRange 201 300 -dof 1 2 3 disp
##recorder Node -file node3.out -time -nodeRange 301 357 -dof 1 2 3 disp

set xDamp 0.05;
set nEigenI 1;
set nEigenJ 2;
set lambdaN [eigen [expr $nEigenJ]];
set lambdaI [lindex $lambdaN [expr $nEigenI-1]];
set lambdaJ [lindex $lambdaN [expr $nEigenJ-1]];
set omegaI [expr pow($lambdaI,0.5)]; 
set omegaJ [expr pow($lambdaJ,0.5)];
set alphaM [expr $xDamp*(2*$omegaI*$omegaJ)/($omegaI+$omegaJ)]; 
set betaKcurr [expr 2.*$xDamp/($omegaI+$omegaJ)];   
rayleigh $alphaM $betaKcurr 0 0  
  
  
set IDloadTag 1001;
set iGMfile "GM1X.txt";
set iGMdirection "1"; 
set iGMfact "0.138";  
set dt 0.02;   
foreach GMdirection $iGMdirection GMfile $iGMfile GMfact $iGMfact { 
incr IDloadTag; 
set GMfatt [expr 1*$GMfact];  
set AccelSeries "Series -dt $dt -filePath $iGMfile -factor  $GMfatt";
pattern UniformExcitation  $IDloadTag  $GMdirection -accel  $AccelSeries; 
}  
  
constraints Transformation; 
numberer Plain;  
system UmfPack;
test EnergyIncr 1.0e-6 2000; 
algorithm Linear
integrator Newmark 0.5 0.25 
analysis Transient
analyze 200 0.02
puts "run200"
analyze 200 0.02
puts "run400"
analyze 200 0.02
puts "run600"
analyze 200 0.02
puts "run800"
analyze 200 0.02
puts "run1000"

